# This file was generated by ISODISTORT, version 6.3.1
# Harold T. Stokes, Branton J. Campbell, David Tanner, Dorian M. Hatch
# Brigham Young University, Provo, Utah, USA
#
# Space Group: 167 R-3c       D3d-6
# Default space-group preferences: monoclinic axes a(b)c, monoclinic cell choice 1, orthorhombic axes abc, origin choice 2, hexagonal axes, SSG standard setting
# Lattice parameters: a=9.63320, b=9.63320, c=11.09710, alpha=90.00000, beta=90.00000, gamma=120.00000
# Ru1 6b (0,0,0)
# Sr1 18e (x,0,1/4), x=-0.35868
# O1 36f (x,y,z), x=0.49243, y=0.18049, z=0.22873
# Li 6a (0,0,1/4)
# k point: GM, k7 (0,0,0)
# IR: mGM3+, mk7t5
# P2      (a,0.577a) 15.89 C2'/c', basis={(-2/3,-1/3,2/3),(0,-1,0),(2/3,1/3,1/3)}, origin=(-1/6,-1/3,1/6), s=1, i=6, k-active= (0,0,0)
# Order parameter values:
#  R-3c[0,0,0]mGM3+(a,0.577a) 15.89 C2'/c' s=1 i=6
#     [Ru1:b:mag]Eg*_1(a): 3.45000
#     [Ru1:b:mag]Eg*_2(a): -2.15000
#  R-3c[0,0,0]mGM2+(a) 167.107 R-3c' s=1 i=2
#     [Ru1:b:mag]Ag(a): 1.20000
 
data_isodistort-output
 
_cell_length_a    9.25550
_cell_length_b    9.63320
_cell_length_c    6.67950
_cell_angle_alpha 90.00000
_cell_angle_beta  93.30782
_cell_angle_gamma 90.00000
 
_space_group.magn_number_BNS "15.89"
_space_group.magn_name_BNS "C2'/c'"
_space_group.magn_point_group "2'/m'"
 
loop_
_space_group_transform_id
_space_group_transform_Pp_abc
_space_group_transform_description
1 a,b,c;0,0,0 "to magnetic BNS, standard ISO C2'/c' setting"
2 a,b,c;0,0,0 "to magnetic OG, standard Litvin C2'/c' setting"
 
loop_
_space_group_symop.magn_id
_space_group_symop.magn_operation_xyz
_space_group_symop.magn_operation_mxmymz
1 x,y,z,+1 mx,my,mz  
2 -x,-y,-z,+1 mx,my,mz  
3 -x,y,-z+1/2,-1 mx,-my,mz  
4 x,-y,z+1/2,-1 mx,-my,mz  
5 x+1/2,y+1/2,z,+1 mx,my,mz  
6 -x+1/2,-y+1/2,-z,+1 mx,my,mz  
7 -x+1/2,y+1/2,-z+1/2,-1 mx,-my,mz  
8 x+1/2,-y+1/2,z+1/2,-1 mx,-my,mz  
 
loop_
_space_group_symop.magn_centering_id
_space_group_symop.magn_centering_xyz
_space_group_symop.magn_centering_mxmymz
1 x,y,z,+1 mx,my,mz
 
loop_
_atom_site_label
_atom_site_type_symbol
_atom_site_symmetry_multiplicity
_atom_site_Wyckoff_label
_atom_site_fract_x
_atom_site_fract_y
_atom_site_fract_z
_atom_site_occupancy
Ru1_1 Ru   4 c  0.25000  0.25000  0.00000  1.00000
Sr1_1 Sr   8 f  0.67934  0.07066  0.89132  1.00000
Sr1_2 Sr   4 e  0.00000  0.10868  0.25000  1.00000
O1_1  O    8 f  0.23252  0.31572  0.72116  1.00000
O1_2  O    8 f  0.06898  0.34782  0.04824  1.00000
O1_3  O    8 f  0.13470  0.08646  0.91680  1.00000
Li_1  Li   4 e  0.00000  0.75000  0.25000  1.00000
 
loop_
_atom_site_moment_label
_atom_site_moment_crystalaxis_x
_atom_site_moment_crystalaxis_y
_atom_site_moment_crystalaxis_z
Ru1_1  0.76143  -2.87282  0.43320  
 
_iso_displacivemode_number    0
 
 
_iso_magneticmode_number    3
 
loop_
_iso_magneticmode_ID
_iso_magneticmode_label
_iso_magneticmode_value
   1 R-3c[0,0,0]mGM3+(a,0.577a)[Ru1:b:mag]Eg*_1(a) 3.45000
   2 R-3c[0,0,0]mGM3+(a,0.577a)[Ru1:b:mag]Eg*_2(a) -2.15000
   3 R-3c[0,0,0]mGM2+(a)[Ru1:b:mag]Ag(a) 1.20000
 
loop_
_iso_magneticmodenorm_ID
_iso_magneticmodenorm_value
   1 0.06357
   2 0.07340
   3 0.06372
 
loop_
_iso_deltamoment_ID
_iso_deltamoment_label
_iso_deltamoment_value
   1 Ru1_1_dmx   0.76143
   2 Ru1_1_dmy  -2.87282
   3 Ru1_1_dmz   0.43320
 
loop_
_iso_moment_label
_iso_moment_formula
Ru1_1_mx            "0 + Ru1_1_dmx"
Ru1_1_my            "0 + Ru1_1_dmy"
Ru1_1_mz            "0 + Ru1_1_dmz"
Sr1_1_mx            "0"
Sr1_1_my            "0"
Sr1_1_mz            "0"
Sr1_2_mx            "0"
Sr1_2_my            "0"
Sr1_2_mz            "0"
O1_1_mx             "0"
O1_1_my             "0"
O1_1_mz             "0"
O1_2_mx             "0"
O1_2_my             "0"
O1_2_mz             "0"
O1_3_mx             "0"
O1_3_my             "0"
O1_3_mz             "0"
Li_1_mx             "0"
Li_1_my             "0"
Li_1_mz             "0"
 
# matrix conversion: deltamoments(lattice units) = matrix.(modeamplitudes*modenormfactors)
# Note that deltamoment_i(crystalaxis units) = deltamoment_i(lattice units)*strained_cell_length_i
# Square matrix with _iso_magneticmode_number rows and columns
 
loop_
_iso_magneticmodematrix_row
_iso_magneticmodematrix_col
_iso_magneticmodematrix_value
    1    1  -0.33333
    1    2  -0.50000
    1    3   1.00000
    2    1  -1.00000
    2    2   0.50000
    3    1   0.66667
    3    2   1.00000
    3    3   1.00000
 
_iso_rotationalmode_number    0
 
 
_iso_occupancymode_number    0
 
_iso_strainmode_number    0
 
# end of structure file
